
Circuit: circuit25

Frequency Response
Doing analysis at TEMP = 27.000000 and TNOM = 27.000000


No. of Data Rows : 1401

The file "ampresponse.eps" may be printed on a postscript printer.
amplituderesponse_FIG

The file "phaseresponse.eps" may be printed on a postscript printer.
phaseresponse_FIG
ngspice-31 done
