
Circuit: circuitot2

Doing analysis at TEMP = 27.000000 and TNOM = 27.000000


No. of Data Rows : 1
************************
Operating Point Analysis
************************
op_TAB1
v(1) = 5.134164e+00
v(2) = 4.929601e+00
v(3) = 4.510168e+00
v(4) = -2.09571e+00
v(5) = 4.957651e+00
v(6) = 5.588277e+00
v(7) = -2.09571e+00
v(8) = -3.15153e+00
hc#branch = -1.00822e-03
v3#branch = 1.008222e-03
vs#branch = -1.94985e-04
op_END1
ngspice-31 done
